53
charge +1, tetrabutylammonium cation (chiefly: tbab_cation)
N          1.09216        0.09396        0.06611
C          0.26863       -0.68164        1.12720
C          0.63260        1.57136       -0.15119
C          0.84266       -0.65845       -1.33877
C          2.64541        0.06486        0.32497
C          0.41217       -0.23496        2.57863
C          0.57209        2.59272        0.99532
C         -0.62367       -0.65938       -1.81603
C          3.29726       -1.32994        0.27351
C         -0.46641       -1.04142        3.54866
C          1.79005        2.90136        1.86017
C         -0.86316       -1.40599       -3.13634
C          4.79452       -1.33543        0.61791
C         -1.95838       -0.96710        3.24106
C          2.89209        3.63517        1.11542
C         -0.59248       -2.89912       -3.07230
C          5.67213       -0.58281       -0.37270
H         -0.77594       -0.58309        0.82962
H          0.55410       -1.73596        1.03758
H          1.24329        1.96353       -0.97197
H         -0.39760        1.51064       -0.50631
H          1.49588       -0.16372       -2.06722
H          1.17035       -1.68990       -1.19139
H          3.09260        0.71600       -0.43290
H          2.81919        0.49200        1.30722
H          1.45160       -0.30953        2.90877
H          0.10744        0.79885        2.70541
H          0.27492        3.54438        0.52876
H         -0.28423        2.36514        1.63764
H         -1.28270       -1.10620       -1.06514
H         -0.97152        0.36248       -1.98867
H          2.79436       -1.99036        0.98310
H          3.18520       -1.77372       -0.72224
H         -0.14865       -2.08915        3.56401
H         -0.30799       -0.64281        4.55790
H          1.46580        3.54431        2.68893
H          2.18081        2.00881        2.34663
H         -1.91738       -1.26588       -3.41699
H         -0.26619       -0.95658       -3.93526
H          4.95840       -0.93509        1.62607
H          5.12689       -2.38192        0.63586
H         -2.21227       -1.55637        2.35410
H         -2.53778       -1.36967        4.07835
H         -2.28141        0.06612        3.07383
H          2.62490        4.69037        0.99006
H          3.82413        3.59832        1.68863
H          3.08048        3.20950        0.12723
H         -1.19645       -3.37961       -2.29506
H         -0.84808       -3.36337       -4.02475
H          0.46277       -3.11050       -2.87593
H          5.64668        0.49522       -0.18465
H          6.71505       -0.90765       -0.27785
H          5.35963       -0.76026       -1.40652
